*Heading
** Job name: Cantilever_3D Model name: Model-1
** Generated by: Abaqus/CAE 2022
*Preprint, echo=NO, model=NO, history=NO, contact=NO
**
** PARTS
**
*Part, name=PART-1
*Node
      1,          -5.,          -5.,          50.
      2,          -5.,          -4.,          50.
      3,          -5.,          -3.,          50.
      4,          -5.,          -2.,          50.
      5,          -5.,          -1.,          50.
      6,          -5.,           0.,          50.
      7,          -5.,           1.,          50.
      8,          -5.,           2.,          50.
      9,          -5.,           3.,          50.
     10,          -5.,           4.,          50.
     11,          -5.,           5.,          50.
     12,          -5.,          -5.,          49.
     13,          -5.,          -4.,          49.
     14,          -5.,          -3.,          49.
     15,          -5.,          -2.,          49.
     16,          -5.,          -1.,          49.
     17,          -5.,           0.,          49.
     18,          -5.,           1.,          49.
     19,          -5.,           2.,          49.
     20,          -5.,           3.,          49.
** ... 6151 like lines cut
*Element, type=C3D8
   1,  562,  563,  574,  573,    1,    2,   13,   12
   2,  563,  564,  575,  574,    2,    3,   14,   13
   3,  564,  565,  576,  575,    3,    4,   15,   14
   4,  565,  566,  577,  576,    4,    5,   16,   15
   5,  566,  567,  578,  577,    5,    6,   17,   16
   6,  567,  568,  579,  578,    6,    7,   18,   17
   7,  568,  569,  580,  579,    7,    8,   19,   18
   8,  569,  570,  581,  580,    8,    9,   20,   19
   9,  570,  571,  582,  581,    9,   10,   21,   20
  10,  571,  572,  583,  582,   10,   11,   22,   21
  11,  573,  574,  585,  584,   12,   13,   24,   23
  12,  574,  575,  586,  585,   13,   14,   25,   24
  13,  575,  576,  587,  586,   14,   15,   26,   25
  14,  576,  577,  588,  587,   15,   16,   27,   26
  15,  577,  578,  589,  588,   16,   17,   28,   27
  16,  578,  579,  590,  589,   17,   18,   29,   28
  17,  579,  580,  591,  590,   18,   19,   30,   29
  18,  580,  581,  592,  591,   19,   20,   31,   30
  19,  581,  582,  593,  592,   20,   21,   32,   31
  20,  582,  583,  594,  593,   21,   22,   33,   32
** ... 4980 like lines cut
*Nset, nset=_PickedSet12, internal, generate
    1,  6171,     1
*Elset, elset=_PickedSet12, internal, generate
    1,  5000,     1
** Section: Section-1
*Solid Section, elset=_PickedSet12, material=Material-1
,
*End Part
**  
**
** ASSEMBLY
**
*Assembly, name=Assembly
**  
*Instance, name=PART-1-1, part=PART-1
*End Instance
**  
*Nset, nset=LOAD, instance=PART-1-1
    1,    2,    3,    4,    5,    6,    7,    8,    9,   10,   11,  562,  563,  564,  565,  566
  567,  568,  569,  570,  571,  572, 1123, 1124, 1125, 1126, 1127, 1128, 1129, 1130, 1131, 1132
 1133, 1684, 1685, 1686, 1687, 1688, 1689, 1690, 1691, 1692, 1693, 1694, 2245, 2246, 2247, 2248
 2249, 2250, 2251, 2252, 2253, 2254, 2255, 2806, 2807, 2808, 2809, 2810, 2811, 2812, 2813, 2814
 2815, 2816, 3367, 3368, 3369, 3370, 3371, 3372, 3373, 3374, 3375, 3376, 3377, 3928, 3929, 3930
 3931, 3932, 3933, 3934, 3935, 3936, 3937, 3938, 4489, 4490, 4491, 4492, 4493, 4494, 4495, 4496
 4497, 4498, 4499, 5050, 5051, 5052, 5053, 5054, 5055, 5056, 5057, 5058, 5059, 5060, 5611, 5612
 5613, 5614, 5615, 5616, 5617, 5618, 5619, 5620, 5621
*Nset, nset=_PickedSet8, internal, instance=PART-1-1
  551,  552,  553,  554,  555,  556,  557,  558,  559,  560,  561, 1112, 1113, 1114, 1115, 1116
 1117, 1118, 1119, 1120, 1121, 1122, 1673, 1674, 1675, 1676, 1677, 1678, 1679, 1680, 1681, 1682
 1683, 2234, 2235, 2236, 2237, 2238, 2239, 2240, 2241, 2242, 2243, 2244, 2795, 2796, 2797, 2798
 2799, 2800, 2801, 2802, 2803, 2804, 2805, 3356, 3357, 3358, 3359, 3360, 3361, 3362, 3363, 3364
 3365, 3366, 3917, 3918, 3919, 3920, 3921, 3922, 3923, 3924, 3925, 3926, 3927, 4478, 4479, 4480
 4481, 4482, 4483, 4484, 4485, 4486, 4487, 4488, 5039, 5040, 5041, 5042, 5043, 5044, 5045, 5046
 5047, 5048, 5049, 5600, 5601, 5602, 5603, 5604, 5605, 5606, 5607, 5608, 5609, 5610, 6161, 6162
 6163, 6164, 6165, 6166, 6167, 6168, 6169, 6170, 6171
*Elset, elset=_PickedSet8, internal, instance=PART-1-1
  491,  492,  493,  494,  495,  496,  497,  498,  499,  500,  991,  992,  993,  994,  995,  996
  997,  998,  999, 1000, 1491, 1492, 1493, 1494, 1495, 1496, 1497, 1498, 1499, 1500, 1991, 1992
 1993, 1994, 1995, 1996, 1997, 1998, 1999, 2000, 2491, 2492, 2493, 2494, 2495, 2496, 2497, 2498
 2499, 2500, 2991, 2992, 2993, 2994, 2995, 2996, 2997, 2998, 2999, 3000, 3491, 3492, 3493, 3494
 3495, 3496, 3497, 3498, 3499, 3500, 3991, 3992, 3993, 3994, 3995, 3996, 3997, 3998, 3999, 4000
 4491, 4492, 4493, 4494, 4495, 4496, 4497, 4498, 4499, 4500, 4991, 4992, 4993, 4994, 4995, 4996
 4997, 4998, 4999, 5000
*End Assembly
** 
** MATERIALS
** 
*Material, name=Material-1
*Elastic
119000., 0.3
** ----------------------------------------------------------------
** 
** STEP: Step-1
** 
*Step, name=Step-1, nlgeom=NO
*Static
1., 1., 1e-05, 1.
** 
** BOUNDARY CONDITIONS
** 
** Name: BC-1 Type: Symmetry/Antisymmetry/Encastre
*Boundary
_PickedSet8, ENCASTRE
** 
** LOADS
** 
** Name: Load-1   Type: Concentrated force
*Cload
LOAD, 2, -10.
** 
** OUTPUT REQUESTS
** 
*Restart, write, frequency=0
** 
** FIELD OUTPUT: F-Output-1
** 
*Output, field, variable=PRESELECT
** 
** HISTORY OUTPUT: H-Output-1
** 
*Output, history, variable=PRESELECT
*End Step
