*Heading
** Job name: Lbracket3d Model name: Model-1
** Generated by: Abaqus/CAE 2022
*Preprint, echo=NO, model=NO, history=NO, contact=NO
**
** PARTS
**
*Part, name=Part-1
*Node
      1,          96.,           0.,           0.
      2,          94.,           0.,           0.
      3,          90.,           0.,           0.
      4,          88.,           0.,           0.
      5,          84.,           0.,           0.
      6,          82.,           0.,           0.
      7,          78.,           0.,           0.
      8,          76.,           0.,           0.
      9,          72.,           0.,           0.
     10,          68.,           0.,           0.
     11,          66.,           0.,           0.
     12,          62.,           0.,           0.
     13,          60.,           0.,           0.
     14,          56.,           0.,           0.
     15,          54.,           0.,           0.
     16,          50.,           0.,           0.
     17,          46.,           0.,           0.
     18,          44.,           0.,           0.
     19,          40.,           0.,           0.
     20,          38.,           0.,           0.
** ... 12154 like lines cut
*Element, type=C3D8
   1,    32,   530,   531,   443,  2061,  2559,  2560,  2472
   2,   530,   529,   532,   531,  2559,  2558,  2561,  2560
   3,   793,   135,   714,   756,  2822,  2164,  2743,  2785
   4,   773,   736,   697,   134,  2802,  2765,  2726,  2163
   5,   987,   156,  1048,  1807,  3016,  2185,  3077,  3836
   6,  1044,   828,   892,   970,  3073,  2857,  2921,  2999
   7,   154,  1261,  1171,  1796,  2183,  3290,  3200,  3825
   8,  1077,   130,  1123,   991,  3106,  2159,  3152,  3020
   9,   129,   900,  1790,   727,  2158,  2929,  3819,  2756
  10,   871,   151,   767,   834,  2900,  2180,  2796,  2863
  11,   126,  1102,  1009,   941,  2155,  3131,  3038,  2970
  12,   915,   757,   699,   126,  2944,  2786,  2728,  2155
  13,   147,   996,   124,   979,  2176,  3025,  2153,  3008
  14,   145,   777,   846,   906,  2174,  2806,  2875,  2935
  15,   777,   740,   700,   122,  2806,  2769,  2729,  2151
  16,  1746,  1041,  1726,   966,  3775,  3070,  3755,  2995
  17,  1040,   826,   890,   967,  3069,  2855,  2919,  2996
  18,   119,  1040,   142,  1169,  2148,  3069,  2171,  3198
  19,   118,  1126,   989,  1079,  2147,  3155,  3018,  3108
  20,   140,   833,   726,   899,  2169,  2862,  2755,  2928
** ... 9620 like lines cut
*Nset, nset=_PickedSet5, internal, generate
     1,  12174,      1
*Elset, elset=_PickedSet5, internal, generate
    1,  9640,     1
** Section: Section-1
*Solid Section, elset=_PickedSet5, material=Material-1
,
*End Part
**  
**
** ASSEMBLY
**
*Assembly, name=Assembly
**  
*Instance, name=Part-1-1, part=Part-1
*End Instance
**  
*Nset, nset=DirichletBC, instance=Part-1-1
    65,    66,    67,    68,    69,    70,    71,    72,    73,   479,   480,   481,   482,   483,   484,   485
   486,   487,   488,   489,   490,  2094,  2095,  2096,  2097,  2098,  2099,  2100,  2101,  2102,  2508,  2509
  2510,  2511,  2512,  2513,  2514,  2515,  2516,  2517,  2518,  2519,  4123,  4124,  4125,  4126,  4127,  4128
  4129,  4130,  4131,  4537,  4538,  4539,  4540,  4541,  4542,  4543,  4544,  4545,  4546,  4547,  4548,  6152
  6153,  6154,  6155,  6156,  6157,  6158,  6159,  6160,  6566,  6567,  6568,  6569,  6570,  6571,  6572,  6573
  6574,  6575,  6576,  6577,  8181,  8182,  8183,  8184,  8185,  8186,  8187,  8188,  8189,  8595,  8596,  8597
  8598,  8599,  8600,  8601,  8602,  8603,  8604,  8605,  8606, 10210, 10211, 10212, 10213, 10214, 10215, 10216
 10217, 10218, 10624, 10625, 10626, 10627, 10628, 10629, 10630, 10631, 10632, 10633, 10634, 10635
*Nset, nset=NeumannBC, instance=Part-1-1
   105,   106,   519,  2134,  2135,  2548,  4163,  4164,  4577,  6192,  6193,  6606,  8221,  8222,  8635, 10250
 10251, 10664
*End Assembly
** 
** MATERIALS
** 
*Material, name=Material-1
*Elastic
119000., 0.34
** 
** BOUNDARY CONDITIONS
** 
** Name: BC-1 Type: Symmetry/Antisymmetry/Encastre
*Boundary
DirichletBC, ENCASTRE
** ----------------------------------------------------------------
** 
** STEP: Step-1
** 
*Step, name=Step-1, nlgeom=NO
*Static
1., 1., 1e-05, 1.
** 
** LOADS
** 
** Name: Load-1   Type: Concentrated force
*Cload
NeumannBC, 2, -1.
** 
** OUTPUT REQUESTS
** 
*Restart, write, frequency=0
** 
** FIELD OUTPUT: F-Output-1
** 
*Output, field, variable=PRESELECT
** 
** HISTORY OUTPUT: H-Output-1
** 
*Output, history, variable=PRESELECT
*End Step
