*Heading
** Job name: cantilever3d Model name: Model-1
** Generated by: Abaqus/CAE 2022
*Preprint, echo=NO, model=NO, history=NO, contact=NO
**
** PARTS
**
*Part, name=Part-1
*Node
      1,          -5.,          -5.,          50.
      2,          -5.,           5.,          50.
      3,          -5.,           5.,           0.
      4,          -5.,          -5.,           0.
      5,           5.,           5.,          50.
      6,           5.,           5.,           0.
      7,           5.,          -5.,           0.
      8,           5.,          -5.,          50.
      9,          -5.,          -4.,          50.
     10,          -5.,          -3.,          50.
     11,          -5.,          -2.,          50.
     12,          -5.,          -1.,          50.
     13,          -5.,           0.,          50.
     14,          -5.,           1.,          50.
     15,          -5.,           2.,          50.
     16,          -5.,           3.,          50.
     17,          -5.,           4.,          50.
     18,          -5.,           5.,          49.
     19,          -5.,           5.,          48.
     20,          -5.,           5.,          47.
** ... 6328 like lines cut
*Element, type=C3D4
    1, 2203, 2204, 2205, 2206
    2, 2203, 2205, 2207, 2206
    3, 2208, 2209, 2210, 2211
    4, 2209, 2211, 2208, 2212
    5, 2209, 2213, 2214, 2215
    6, 2209, 2216, 2217, 2218
    7, 2209, 2219, 2213, 2215
    8, 2209, 2211, 2219, 2210
    9, 2220, 2221, 2222, 2223
   10, 2220, 2224, 2225, 2221
   11, 2220, 2226, 2227, 2228
   12, 2220, 2229, 2226, 2228
   13, 2220, 2224, 2229, 2225
   14, 2230, 2220, 2231, 2227
   15, 2232, 2233, 2234, 2235
   16, 2232, 2236, 2237, 2234
   17, 2238, 2239, 2240, 2241
   18, 2242, 2232, 2243, 2244
   19, 2236, 2232, 2233, 2234
   20, 2232, 2245, 2246, 2236
** ... 31285 like lines cut
*Nset, nset=_PickedSet13, internal, generate
    1,  6348,     1
*Elset, elset=_PickedSet13, internal, generate
     1,  31305,      1
** Section: Section-1
*Solid Section, elset=_PickedSet13, material=Material-1
,
*End Part
**  
**
** ASSEMBLY
**
*Assembly, name=Assembly
**  
*Instance, name=Part-1-1, part=Part-1
*End Instance
**  
*Nset, nset=DirichletBC, instance=Part-1-1
    3,    4,    6,    7,   67,   68,   69,   70,   71,   72,   73,   74,   75,  183,  184,  185
  186,  187,  188,  189,  190,  191,  192,  193,  194,  195,  196,  197,  198,  199,  200,  201
  202,  203,  204,  205,  206,  207,  208,  209, 1159, 1160, 1161, 1162, 1163, 1164, 1165, 1166
 1167, 1168, 1169, 1170, 1171, 1172, 1173, 1174, 1175, 1176, 1177, 1178, 1179, 1180, 1181, 1182
 1183, 1184, 1185, 1186, 1187, 1188, 1189, 1190, 1191, 1192, 1193, 1194, 1195, 1196, 1197, 1198
 1199, 1200, 1201, 1202, 1203, 1204, 1205, 1206, 1207, 1208, 1209, 1210, 1211, 1212, 1213, 1214
 1215, 1216, 1217, 1218, 1219, 1220, 1221, 1222, 1223, 1224, 1225, 1226, 1227, 1228, 1229, 1230
 1231, 1232, 1233, 1234, 1235, 1236, 1237, 1238, 1239
*Nset, nset=NeumannBC, instance=Part-1-1
    1,    2,    5,    8,    9,   10,   11,   12,   13,   14,   15,   16,   17,  125,  126,  127
  128,  129,  130,  131,  132,  133,  210,  211,  212,  213,  214,  215,  216,  217,  218,  268
  269,  270,  271,  272,  273,  274,  275,  276, 1681, 1682, 1683, 1684, 1685, 1686, 1687, 1688
 1689, 1690, 1691, 1692, 1693, 1694, 1695, 1696, 1697, 1698, 1699, 1700, 1701, 1702, 1703, 1704
 1705, 1706, 1707, 1708, 1709, 1710, 1711, 1712, 1713, 1714, 1715, 1716, 1717, 1718, 1719, 1720
 1721, 1722, 1723, 1724, 1725, 1726, 1727, 1728, 1729, 1730, 1731, 1732, 1733, 1734, 1735, 1736
 1737, 1738, 1739, 1740, 1741, 1742, 1743, 1744, 1745, 1746, 1747, 1748, 1749, 1750, 1751, 1752
 1753, 1754, 1755, 1756, 1757, 1758, 1759, 1760, 1761
*End Assembly
** 
** MATERIALS
** 
*Material, name=Material-1
*Elastic
119000., 0.34
** 
** BOUNDARY CONDITIONS
** 
** Name: BC-1 Type: Symmetry/Antisymmetry/Encastre
*Boundary
DirichletBC, ENCASTRE
** ----------------------------------------------------------------
** 
** STEP: Step-1
** 
*Step, name=Step-1, nlgeom=NO
*Static
1., 1., 1e-05, 1.
** 
** LOADS
** 
** Name: Load-1   Type: Concentrated force
*Cload
NeumannBC, 2, -1.
** 
** OUTPUT REQUESTS
** 
*Restart, write, frequency=0
** 
** FIELD OUTPUT: F-Output-1
** 
*Output, field, variable=PRESELECT
** 
** HISTORY OUTPUT: H-Output-1
** 
*Output, history, variable=PRESELECT
*End Step
