*Heading
** Job name: cantilever2d Model name: Model-1
** Generated by: Abaqus/CAE 2022
*Preprint, echo=NO, model=NO, history=NO, contact=NO
**
** PARTS
**
*Part, name=Part-1
*Node
      1,        -6.25,       -11.25
      2,        -6.75,       -11.25
      3,        -7.25,       -11.25
      4,        -7.75,       -11.25
      5,        -8.25,       -11.25
      6,        -8.75,       -11.25
      7,        -9.25,       -11.25
      8,        -9.75,       -11.25
      9,       -10.25,       -11.25
     10,       -10.75,       -11.25
     11,       -11.25,       -11.25
     12,       -11.75,       -11.25
     13,       -12.25,       -11.25
     14,       -12.75,       -11.25
     15,       -13.25,       -11.25
     16,       -13.75,       -11.25
     17,       -14.25,       -11.25
     18,       -14.75,       -11.25
     19,       -15.25,       -11.25
     20,       -15.75,       -11.25
** ... 2101 like lines cut
*Element, type=CPS3
   1,    1,    2,  103
   2,  103,  102,    1
   3,    2,    3,  104
   4,  104,  103,    2
   5,    3,    4,  105
   6,  105,  104,    3
   7,    4,    5,  106
   8,  106,  105,    4
   9,    5,    6,  107
  10,  107,  106,    5
  11,    6,    7,  108
  12,  108,  107,    6
  13,    7,    8,  109
  14,  109,  108,    7
  15,    8,    9,  110
  16,  110,  109,    8
  17,    9,   10,  111
  18,  111,  110,    9
  19,   10,   11,  112
  20,  112,  111,   10
** ... 3980 like lines cut
*Nset, nset=_PickedSet7, internal, generate
    1,  2121,     1
*Elset, elset=_PickedSet7, internal, generate
    1,  4000,     1
** Section: Section-1
*Solid Section, elset=_PickedSet7, material=Material-1
,
*End Part
**  
**
** ASSEMBLY
**
*Assembly, name=Assembly
**  
*Instance, name=Part-1-1, part=Part-1
*End Instance
**  
*Nset, nset=DirichletBC, instance=Part-1-1, generate
  101,  2121,   101
*Nset, nset=NeumannBC, instance=Part-1-1, generate
    1,  2021,   101
*End Assembly
** 
** MATERIALS
** 
*Material, name=Material-1
*Elastic
119000., 0.34
** 
** BOUNDARY CONDITIONS
** 
** Name: BC-1 Type: Symmetry/Antisymmetry/Encastre
*Boundary
DirichletBC, ENCASTRE
** ----------------------------------------------------------------
** 
** STEP: Step-1
** 
*Step, name=Step-1, nlgeom=NO
*Static
1., 1., 1e-05, 1.
** 
** LOADS
** 
** Name: Load-1   Type: Concentrated force
*Cload
NeumannBC, 2, -1.
** 
** OUTPUT REQUESTS
** 
*Restart, write, frequency=0
** 
** FIELD OUTPUT: F-Output-1
** 
*Output, field, variable=PRESELECT
** 
** HISTORY OUTPUT: H-Output-1
** 
*Output, history, variable=PRESELECT
*End Step
